<?xml version="1.0" encoding="UTF-8"?>
<!DOCTYPE network SYSTEM "http://www.matsim.org/files/dtd/network_v2.dtd">
<network>

<!-- ====================================================================== -->

	<nodes>
		<node id="-1" x="246928.46416909317" y="6449165.935594425" >
		</node>
		<node id="-1005" x="246595.34659062105" y="6452502.734763151" >
		</node>
		<node id="-10181" x="241258.54601833105" y="6451284.579137031" >
		</node>
		<node id="-104" x="245476.3775987257" y="6452080.249734479" >
		</node>
		<node id="-1054" x="246068.81143700416" y="6451983.104864296" >
		</node>
		<node id="-1061" x="246392.65206984992" y="6451792.067990001" >
		</node>
		<node id="-107" x="245462.9819171682" y="6452281.740373149" >
		</node>
		<node id="-1074" x="246009.4919536413" y="6451629.663865312" >
		</node>
		<node id="-108" x="246627.33406159806" y="6452994.152667062" >
		</node>
		<node id="-1091" x="246453.14697640223" y="6451746.920340444" >
		</node>
		<node id="-11" x="245431.08672079103" y="6449556.814600299" >
		</node>
		<node id="-1108" x="246016.1259634373" y="6451920.550214885" >
		</node>
		<node id="-1113" x="246207.30744001718" y="6451819.428787663" >
		</node>
		<node id="-1124" x="245672.4136456495" y="6452209.92192672" >
		</node>
		<node id="-1126" x="245692.95308063395" y="6452239.766210493" >
		</node>
		<node id="-1139" x="245810.00317401945" y="6452362.890451301" >
		</node>
		<node id="-115" x="246878.20876172738" y="6452800.681980724" >
		</node>
		<node id="-1153" x="244381.88399957292" y="6450947.385800799" >
		</node>
		<node id="-1154" x="244453.78548444857" y="6450944.727105923" >
		</node>
		<node id="-1155" x="244528.6724874355" y="6450941.832678881" >
		</node>
		<node id="-1156" x="244609.74607712674" y="6450934.108438631" >
		</node>
		<node id="-1157" x="242524.20803958768" y="6454373.240570102" >
		</node>
		<node id="-1166" x="242696.32480479722" y="6453946.86401725" >
		</node>
		<node id="-1177" x="242953.15525558832" y="6453541.966657389" >
		</node>
		<node id="-1197" x="242918.5550177042" y="6453121.5777866915" >
		</node>
		<node id="-1198" x="242556.45629922094" y="6452806.903124315" >
		</node>
		<node id="-1199" x="242378.25148498485" y="6452841.823168427" >
		</node>
		<node id="-1200" x="242154.8751330468" y="6453166.952842074" >
		</node>
		<node id="-1201" x="244201.15677250185" y="6451142.336931579" >
		</node>
		<node id="-1202" x="244179.50830733313" y="6451071.670734392" >
		</node>
		<node id="-1203" x="244145.48530948316" y="6450966.609024915" >
		</node>
		<node id="-1204" x="244122.12772211432" y="6450900.787528826" >
		</node>
		<node id="-1205" x="244289.29746008807" y="6450918.016998161" >
		</node>
		<node id="-1206" x="242570.38179088454" y="6451100.626182729" >
		</node>
		<node id="-1207" x="242597.63236960073" y="6450918.190360236" >
		</node>
		<node id="-1208" x="240419.93801364518" y="6453029.124105914" >
		</node>
		<node id="-1213" x="240354.37728080238" y="6452993.38756618" >
		</node>
		<node id="-1228" x="240291.87280102912" y="6452569.219845339" >
		</node>
		<node id="-1229" x="240376.31648233312" y="6452727.288914325" >
		</node>
		<node id="-1230" x="240410.85330157063" y="6452737.052611005" >
		</node>
		<node id="-1236" x="240492.34422115175" y="6452714.00440894" >
		</node>
		<node id="-1241" x="240512.3548943625" y="6452619.273990225" >
		</node>
		<node id="-1242" x="240319.64913396546" y="6453126.894395912" >
		</node>
		<node id="-1251" x="240247.34122912597" y="6453125.950682483" >
		</node>
		<node id="-1263" x="240058.182907879" y="6452941.431647905" >
		</node>
		<node id="-127" x="244321.83725335664" y="6452130.905574177" >
		</node>
		<node id="-1276" x="239795.10755229602" y="6452634.907485591" >
		</node>
		<node id="-1277" x="239714.41210891822" y="6452649.475771969" >
		</node>
		<node id="-1283" x="242905.25111967168" y="6451142.576073159" >
		</node>
		<node id="-1284" x="242755.15032361215" y="6451126.753805234" >
		</node>
		<node id="-1285" x="242475.58657553067" y="6451090.346128571" >
		</node>
		<node id="-1286" x="242349.05447082626" y="6451087.76953846" >
		</node>
		<node id="-1287" x="242040.62004353985" y="6451074.215831582" >
		</node>
		<node id="-1293" x="242654.85884460554" y="6452964.79727478" >
		</node>
		<node id="-1295" x="242470.2323960228" y="6453032.803007492" >
		</node>
		<node id="-1296" x="242225.0912506461" y="6453133.943218284" >
		</node>
		<node id="-1297" x="242103.33034299855" y="6453193.444346232" >
		</node>
		<node id="-1298" x="245326.98952058432" y="6450616.375607482" >
		</node>
		<node id="-1299" x="245277.5170344055" y="6450466.5992179215" >
		</node>
		<node id="-13" x="244364.6358645946" y="6450011.728251438" >
		</node>
		<node id="-1301" x="242108.42173026464" y="6452888.051634453" >
		</node>
		<node id="-1302" x="240084.3346323027" y="6452804.654363442" >
		</node>
		<node id="-136" x="244661.05836057343" y="6452080.206139342" >
		</node>
		<node id="-1371" x="245641.60024610176" y="6450694.771004829" >
		</node>
		<node id="-1373" x="241385.64223919332" y="6452451.870251136" >
		</node>
		<node id="-1375" x="241276.46591215784" y="6452465.450966124" >
		</node>
		<node id="-1377" x="241160.62925366327" y="6452474.344376663" >
		</node>
		<node id="-1378" x="241120.9997512864" y="6452476.743296399" >
		</node>
		<node id="-1379" x="244351.2765067339" y="6451089.521007082" >
		</node>
		<node id="-1380" x="242685.72032870655" y="6450928.841940556" >
		</node>
		<node id="-1381" x="242711.77745405812" y="6450747.199639684" >
		</node>
		<node id="-1382" x="240960.51960146215" y="6452932.461414267" >
		</node>
		<node id="-1383" x="240675.16194505675" y="6453006.213100908" >
		</node>
		<node id="-1384" x="240541.50829021315" y="6453038.0336803645" >
		</node>
		<node id="-1385" x="246256.9168855107" y="6451465.879134915" >
		</node>
		<node id="-1387" x="246374.65313121647" y="6451240.937486149" >
		</node>
		<node id="-1388" x="246173.51247986912" y="6451536.98165045" >
		</node>
		<node id="-1390" x="246091.8964241267" y="6451436.619599843" >
		</node>
		<node id="-1391" x="242738.81236990567" y="6452907.367090188" >
		</node>
		<node id="-1393" x="242695.34625460778" y="6452773.673230958" >
		</node>
		<node id="-1397" x="242724.0948166126" y="6452544.822812028" >
		</node>
		<node id="-1398" x="240195.987515463" y="6452244.100338201" >
		</node>
		<node id="-1406" x="240253.94991644885" y="6452159.018772351" >
		</node>
		<node id="-1414" x="240369.07693832013" y="6452086.016199929" >
		</node>
		<node id="-1430" x="241247.08706574247" y="6451533.745725469" >
		</node>
		<node id="-1435" x="241023.14436007777" y="6451525.489997673" >
		</node>
		<node id="-1456" x="247459.74805027072" y="6452098.258689398" >
		</node>
		<node id="-1457" x="245529.646784535" y="6450694.3172638705" >
		</node>
		<node id="-1458" x="245500.3050240635" y="6450609.635880555" >
		</node>
		<node id="-1459" x="245470.86674438024" y="6450538.191702941" >
		</node>
		<node id="-1460" x="241028.27474999087" y="6451215.464661107" >
		</node>
		<node id="-1461" x="240707.60374414347" y="6451231.489404028" >
		</node>
		<node id="-1465" x="240526.55040696336" y="6451268.259047688" >
		</node>
		<node id="-147" x="244787.1347911011" y="6452058.508090147" >
		</node>
		<node id="-1471" x="239811.26296007566" y="6452767.524360956" >
		</node>
		<node id="-1481" x="240465.76944295986" y="6452487.231107864" >
		</node>
		<node id="-1483" x="240274.29729177742" y="6452439.46488694" >
		</node>
		<node id="-1485" x="240320.70364509142" y="6452290.7211007215" >
		</node>
		<node id="-1490" x="240552.7463967045" y="6452377.585709925" >
		</node>
		<node id="-1491" x="240534.3884922734" y="6452740.753231484" >
		</node>
		<node id="-1492" x="245742.09807607418" y="6451431.373011653" >
		</node>
		<node id="-1498" x="245927.25519448053" y="6451541.503656679" >
		</node>
		<node id="-1499" x="245567.2135115985" y="6450694.54151268" >
		</node>
		<node id="-15" x="243934.7629952445" y="6450195.0083582355" >
		</node>
		<node id="-1500" x="245710.5557522444" y="6450689.990874055" >
		</node>
		<node id="-1501" x="245887.23028189063" y="6450684.403290364" >
		</node>
		<node id="-1502" x="245932.1595080095" y="6450683.377582133" >
		</node>
		<node id="-1503" x="245966.29797261333" y="6450680.810663711" >
		</node>
		<node id="-1504" x="246115.15085459416" y="6450675.8992618825" >
		</node>
		<node id="-1505" x="240409.56675702645" y="6452914.630768468" >
		</node>
		<node id="-151" x="244771.29451807265" y="6452073.60788899" >
		</node>
		<node id="-1512" x="240595.81588829885" y="6452683.198609989" >
		</node>
		<node id="-1513" x="242230.24485103227" y="6452743.941317653" >
		</node>
		<node id="-1517" x="240556.0298764445" y="6452506.8474517325" >
		</node>
		<node id="-152" x="244775.46274911283" y="6451966.574717607" >
		</node>
		<node id="-1520" x="240754.54171299317" y="6452551.40789966" >
		</node>
		<node id="-1522" x="240796.93105165623" y="6452516.542257088" >
		</node>
		<node id="-1528" x="245906.4944201473" y="6450391.254713482" >
		</node>
		<node id="-1529" x="245837.56923662752" y="6450427.36977456" >
		</node>
		<node id="-1530" x="245750.6197056586" y="6450476.912349666" >
		</node>
		<node id="-1531" x="245667.62578549178" y="6450523.2556791995" >
		</node>
		<node id="-1532" x="242838.12005591873" y="6453390.964439148" >
		</node>
		<node id="-1535" x="242773.69810795377" y="6453201.036131095" >
		</node>
		<node id="-1543" x="242479.2489374075" y="6452642.061340544" >
		</node>
		<node id="-1544" x="242475.27844933333" y="6452633.5763132945" >
		</node>
		<node id="-1548" x="240373.97898994305" y="6452046.701192056" >
		</node>
		<node id="-1549" x="241312.68610554296" y="6452737.74657631" >
		</node>
		<node id="-155" x="244782.06522338858" y="6452018.482349103" >
		</node>
		<node id="-1550" x="241327.01891810642" y="6452680.319985898" >
		</node>
		<node id="-1551" x="245737.36203623106" y="6450132.745633073" >
		</node>
		<node id="-1552" x="245601.1382696917" y="6450207.59113989" >
		</node>
		<node id="-1554" x="244920.7395474649" y="6450560.076506086" >
		</node>
		<node id="-1555" x="246426.76334218963" y="6451298.453725634" >
		</node>
		<node id="-1556" x="246341.93425952282" y="6451206.811255139" >
		</node>
		<node id="-1557" x="242136.00979929548" y="6450898.57524892" >
		</node>
		<node id="-156" x="244681.50850888874" y="6451986.5160625605" >
		</node>
		<node id="-1561" x="242134.79903045786" y="6450737.883807329" >
		</node>
		<node id="-1562" x="245023.21463763146" y="6450695.710927594" >
		</node>
		<node id="-1563" x="246418.88234992718" y="6451579.63722074" >
		</node>
		<node id="-1564" x="246361.76820191854" y="6451481.621879133" >
		</node>
		<node id="-1566" x="246313.27423282692" y="6451410.27603982" >
		</node>
		<node id="-1567" x="247021.6017485558" y="6451364.920131383" >
		</node>
		<node id="-1571" x="244057.42124672045" y="6450925.8884648215" >
		</node>
		<node id="-1572" x="244265.13137679012" y="6450849.79056856" >
		</node>
		<node id="-1573" x="242149.10439131744" y="6452774.702049863" >
		</node>
		<node id="-1574" x="242776.40445468176" y="6452753.704564661" >
		</node>
		<node id="-1575" x="242597.38952017052" y="6452796.10363966" >
		</node>
		<node id="-1576" x="241123.62613654952" y="6452933.715557794" >
		</node>
		<node id="-1578" x="241061.10877683558" y="6452662.882059062" >
		</node>
		<node id="-1579" x="246171.5062189394" y="6451040.003978802" >
		</node>
		<node id="-1582" x="241305.73445304992" y="6450287.224984142" >
		</node>
		<node id="-1592" x="241193.21581648124" y="6449955.946503485" >
		</node>
		<node id="-16" x="247107.27478774003" y="6449103.353449903" >
		</node>
		<node id="-160" x="244637.49712672824" y="6451918.729387204" >
		</node>
		<node id="-1600" x="241317.8769582406" y="6449676.204365365" >
		</node>
		<node id="-1601" x="246493.38828966042" y="6451538.439874541" >
		</node>
		<node id="-1602" x="246419.69632451897" y="6451428.67766868" >
		</node>
		<node id="-1609" x="242873.94023367527" y="6450950.888279199" >
		</node>
		<node id="-1610" x="242772.66272728206" y="6450940.1503751725" >
		</node>
		<node id="-1611" x="242549.91375881524" y="6450916.051722849" >
		</node>
		<node id="-1613" x="242349.0861884068" y="6450904.8109458415" >
		</node>
		<node id="-1623" x="240363.18176595672" y="6452586.042709477" >
		</node>
		<node id="-1638" x="244326.11750358695" y="6451021.626361844" >
		</node>
		<node id="-1641" x="244456.21873545958" y="6451690.944721939" >
		</node>
		<node id="-165" x="244721.5370966158" y="6452038.056973903" >
		</node>
		<node id="-1654" x="245767.6707019298" y="6450509.928902773" >
		</node>
		<node id="-1655" x="245708.0050914006" y="6450409.973787622" >
		</node>
		<node id="-1656" x="245673.22159056386" y="6450342.924106298" >
		</node>
		<node id="-1657" x="245633.63295393475" y="6450268.121530606" >
		</node>
		<node id="-1658" x="245532.50330127229" y="6450072.663091064" >
		</node>
		<node id="-1659" x="241001.42762389165" y="6452245.404044719" >
		</node>
		<node id="-166" x="244741.85253848316" y="6452073.918543531" >
		</node>
		<node id="-1661" x="240802.30435685063" y="6452288.35997627" >
		</node>
		<node id="-1662" x="246515.33054192847" y="6451337.226499187" >
		</node>
		<node id="-1663" x="246461.4120623474" y="6451399.436443824" >
		</node>
		<node id="-1664" x="242620.4081076388" y="6450736.748968129" >
		</node>
		<node id="-1667" x="242236.03364576274" y="6451577.068981945" >
		</node>
		<node id="-1671" x="242164.21610889098" y="6451837.612485139" >
		</node>
		<node id="-1672" x="240907.8015144862" y="6452854.8283276055" >
		</node>
		<node id="-1676" x="240687.23164295888" y="6452900.200417592" >
		</node>
		<node id="-1685" x="245810.18969465632" y="6450265.7441619625" >
		</node>
		<node id="-1687" x="245416.30404052636" y="6450391.867029355" >
		</node>
		<node id="-1695" x="240374.51565894132" y="6452806.154160042" >
		</node>
		<node id="-1699" x="240103.9624118613" y="6452135.653209658" >
		</node>
		<node id="-17" x="247049.78437583082" y="6449144.141755" >
		</node>
		<node id="-1700" x="241249.2554881799" y="6451748.21116625" >
		</node>
		<node id="-1714" x="241258.0695081636" y="6451301.806468146" >
		</node>
		<node id="-1716" x="242361.26676583246" y="6450723.229264489" >
		</node>
		<node id="-1717" x="245660.9807714324" y="6450000.232739805" >
		</node>
		<node id="-1724" x="240652.1282784088" y="6452756.070562601" >
		</node>
		<node id="-1725" x="240596.0100352931" y="6452157.742119218" >
		</node>
		<node id="-1727" x="240759.50776938908" y="6452108.296069112" >
		</node>
		<node id="-1730" x="245970.3223114701" y="6450478.987822255" >
		</node>
		<node id="-1731" x="240916.74557272936" y="6450901.291580663" >
		</node>
		<node id="-1733" x="241032.93608753552" y="6450753.908424694" >
		</node>
		<node id="-1734" x="241004.2932575684" y="6450714.6532790875" >
		</node>
		<node id="-1735" x="244883.97229025944" y="6453490.794470468" >
		</node>
		<node id="-1741" x="241017.9989844616" y="6452378.50863718" >
		</node>
		<node id="-1743" x="241090.6247838648" y="6452377.459124378" >
		</node>
		<node id="-1744" x="241101.35759290983" y="6452430.100094668" >
		</node>
		<node id="-1745" x="240765.18223142004" y="6452729.9349383" >
		</node>
		<node id="-1754" x="242317.68989250978" y="6452715.586215899" >
		</node>
		<node id="-1756" x="242591.12066340138" y="6453289.058904889" >
		</node>
		<node id="-1757" x="242768.6681154207" y="6453645.001912529" >
		</node>
		<node id="-1758" x="241264.50388155004" y="6452568.963056028" >
		</node>
		<node id="-1759" x="245772.3658593455" y="6450195.304523744" >
		</node>
		<node id="-1760" x="244957.09147521353" y="6450641.400825891" >
		</node>
		<node id="-1761" x="246896.9035602114" y="6451231.062400907" >
		</node>
		<node id="-1765" x="246681.84409387596" y="6451074.8782379925" >
		</node>
		<node id="-177" x="244322.24728996961" y="6452136.986726574" >
		</node>
		<node id="-1773" x="246791.36708174107" y="6452450.668844584" >
		</node>
		<node id="-178" x="244156.19920055772" y="6452148.975564484" >
		</node>
		<node id="-1784" x="245540.38064508486" y="6452521.882655375" >
		</node>
		<node id="-1789" x="245574.91313975782" y="6452549.420910687" >
		</node>
		<node id="-179" x="244119.90154863865" y="6452153.68610019" >
		</node>
		<node id="-180" x="244786.62501778553" y="6452075.0770564135" >
		</node>
		<node id="-181" x="244823.57763531987" y="6452048.245164446" >
		</node>
		<node id="-183" x="244431.4770339303" y="6452978.316875515" >
		</node>
		<node id="-186" x="244290.82363078653" y="6453047.307340248" >
		</node>
		<node id="-187" x="244138.57647387666" y="6453122.65714082" >
		</node>
		<node id="-19" x="247000.17751366232" y="6449131.830471855" >
		</node>
		<node id="-190" x="243972.79565041667" y="6453203.197873616" >
		</node>
		<node id="-192" x="243808.63547282445" y="6453282.781539827" >
		</node>
		<node id="-193" x="243642.66238441426" y="6453363.729294637" >
		</node>
		<node id="-1940" x="241009.45552480005" y="6451989.92648602" >
		</node>
		<node id="-1948" x="241045.00466740222" y="6450756.503649357" >
		</node>
		<node id="-198" x="243253.76450454778" y="6453547.214996364" >
		</node>
		<node id="-1985" x="239995.84987833336" y="6451997.688622965" >
		</node>
		<node id="-1989" x="239833.3124323628" y="6451523.2482797075" >
		</node>
		<node id="-199" x="245489.3098725873" y="6452463.194779084" >
		</node>
		<node id="-1997" x="239272.18672936194" y="6450972.949672175" >
		</node>
		<node id="-20" x="247081.90912557355" y="6449230.843102752" >
		</node>
		<node id="-2003" x="242167.27423623184" y="6454928.6926806895" >
		</node>
		<node id="-2012" x="242066.54047910814" y="6452805.71353838" >
		</node>
		<node id="-2013" x="242101.84250837055" y="6452889.574166446" >
		</node>
		<node id="-2014" x="242332.697206383" y="6454409.659604921" >
		</node>
		<node id="-2022" x="242532.71709166715" y="6454841.4096123725" >
		</node>
		<node id="-2026" x="243025.80882103482" y="6455031.893479441" >
		</node>
		<node id="-2029" x="243293.1686241795" y="6455128.140771821" >
		</node>
		<node id="-205" x="245542.2264156292" y="6452307.590465975" >
		</node>
		<node id="-206" x="245556.11678620294" y="6452261.088176552" >
		</node>
		<node id="-2060" x="244349.6415645506" y="6452532.7721284665" >
		</node>
		<node id="-2061" x="244786.2423050007" y="6452093.4354910115" >
		</node>
		<node id="-2062" x="244785.6367629768" y="6452175.641585693" >
		</node>
		<node id="-2066" x="244778.77578694318" y="6452504.629249198" >
		</node>
		<node id="-2068" x="244778.63312224293" y="6452519.466273649" >
		</node>
		<node id="-2069" x="243453.33069077166" y="6451862.27325651" >
		</node>
		<node id="-207" x="245605.08385814668" y="6452123.156723837" >
		</node>
		<node id="-2073" x="242207.46816155824" y="6450711.552079674" >
		</node>
		<node id="-208" x="245619.91957770713" y="6452079.396616002" >
		</node>
		<node id="-2083" x="242407.83394967578" y="6450337.520253309" >
		</node>
		<node id="-209" x="246687.50788329067" y="6450066.964124324" >
		</node>
		<node id="-2091" x="242431.54607780563" y="6449986.906986043" >
		</node>
		<node id="-2092" x="242420.397750098" y="6451306.790479851" >
		</node>
		<node id="-2093" x="242768.24003496522" y="6451353.154945513" >
		</node>
		<node id="-2095" x="242450.24398128764" y="6451631.414773383" >
		</node>
		<node id="-2096" x="242783.80957692905" y="6451585.268548176" >
		</node>
		<node id="-2097" x="243516.93507750018" y="6453897.792122781" >
		</node>
		<node id="-2102" x="243411.46971465676" y="6454023.58494665" >
		</node>
		<node id="-2103" x="242446.51771289925" y="6451245.310219364" >
		</node>
		<node id="-2104" x="242760.28458786328" y="6451287.9033917645" >
		</node>
		<node id="-2105" x="242458.78916981953" y="6451696.024880767" >
		</node>
		<node id="-2106" x="242791.42715935802" y="6451650.687198711" >
		</node>
		<node id="-2111" x="244790.95317700302" y="6452037.561330011" >
		</node>
		<node id="-2117" x="242441.6570886903" y="6451566.528228835" >
		</node>
		<node id="-2118" x="242776.48221170058" y="6451522.321089809" >
		</node>
		<node id="-2119" x="242304.93988697242" y="6451527.62280112" >
		</node>
		<node id="-2121" x="242433.22684210012" y="6451502.781619265" >
		</node>
		<node id="-2122" x="242768.90519950443" y="6451457.25712763" >
		</node>
		<node id="-2128" x="244504.5635963017" y="6451771.637069546" >
		</node>
		<node id="-2129" x="245724.63089968273" y="6451772.062899581" >
		</node>
		<node id="-2131" x="245770.69676242908" y="6451645.30745319" >
		</node>
		<node id="-2132" x="244770.9133364188" y="6452510.171315761" >
		</node>
		<node id="-2138" x="244256.3961079743" y="6451729.703214181" >
		</node>
		<node id="-2140" x="244048.39614811583" y="6451814.4668280985" >
		</node>
		<node id="-2145" x="242471.88135847056" y="6451796.439542691" >
		</node>
		<node id="-2146" x="242420.9223495653" y="6451409.774763938" >
		</node>
		<node id="-2148" x="242474.185409958" y="6451180.178863121" >
		</node>
		<node id="-2149" x="242305.6869873729" y="6454414.73354782" >
		</node>
		<node id="-215" x="246485.43751356847" y="6450123.966620394" >
		</node>
		<node id="-216" x="244564.08990290156" y="6451433.090359156" >
		</node>
		<node id="-2182" x="241043.53303951732" y="6452655.722777764" >
		</node>
		<node id="-2188" x="241021.64732672586" y="6452416.079908635" >
		</node>
		<node id="-2189" x="241019.55691722676" y="6452394.57588461" >
		</node>
		<node id="-2203" x="244919.52051243003" y="6452990.8018470425" >
		</node>
		<node id="-2229" x="247975.14103840652" y="6449822.1834148625" >
		</node>
		<node id="-2234" x="247480.50521514384" y="6450026.92204054" >
		</node>
		<node id="-2242" x="247215.0362014583" y="6449721.370440189" >
		</node>
		<node id="-2247" x="247088.24870853405" y="6449688.645166068" >
		</node>
		<node id="-225" x="245166.03475317362" y="6451229.536009081" >
		</node>
		<node id="-2252" x="246973.2274241579" y="6449639.698590166" >
		</node>
		<node id="-2253" x="245082.39242428992" y="6450788.2968962295" >
		</node>
		<node id="-2254" x="242798.45060703045" y="6453189.156290445" >
		</node>
		<node id="-2255" x="245859.87431157" y="6450327.507796384" >
		</node>
		<node id="-2269" x="246017.59875875915" y="6451483.4497093" >
		</node>
		<node id="-227" x="245236.1539401765" y="6451204.02720738" >
		</node>
		<node id="-2272" x="245938.96368154432" y="6451359.184451993" >
		</node>
		<node id="-228" x="245302.65054071104" y="6451181.052517826" >
		</node>
		<node id="-2283" x="246440.56436180882" y="6451284.853933885" >
		</node>
		<node id="-229" x="245366.00850482972" y="6451158.861194429" >
		</node>
		<node id="-23" x="247011.66424327056" y="6449161.656226719" >
		</node>
		<node id="-230" x="245428.11673959123" y="6451137.711408119" >
		</node>
		<node id="-234" x="245587.46885062705" y="6451081.257837326" >
		</node>
		<node id="-235" x="245691.97144006347" y="6451045.746740481" >
		</node>
		<node id="-236" x="245790.31151036272" y="6451009.5394839095" >
		</node>
		<node id="-237" x="245867.83542700228" y="6450981.5914783785" >
		</node>
		<node id="-2380" x="243579.7208902925" y="6452365.143106871" >
		</node>
		<node id="-2394" x="243741.62182377896" y="6452714.823230453" >
		</node>
		<node id="-2395" x="243745.03732801124" y="6452721.893608955" >
		</node>
		<node id="-2397" x="245480.73033483734" y="6452580.0331000155" >
		</node>
		<node id="-24" x="246996.07251437558" y="6449029.375363073" >
		</node>
		<node id="-2403" x="247645.39690522372" y="6450439.291781855" >
		</node>
		<node id="-241" x="246001.12342161272" y="6450935.624441035" >
		</node>
		<node id="-2412" x="248145.82215720354" y="6450391.958216524" >
		</node>
		<node id="-2425" x="248689.76634270424" y="6450276.941683394" >
		</node>
		<node id="-2428" x="248867.64815087157" y="6450247.005983269" >
		</node>
		<node id="-2429" x="245338.5970916077" y="6452597.025622956" >
		</node>
		<node id="-243" x="246091.54943524225" y="6450906.742862599" >
		</node>
		<node id="-2439" x="237336.91912931402" y="6453667.686483639" >
		</node>
		<node id="-244" x="246160.284616834" y="6450883.55067784" >
		</node>
		<node id="-2443" x="237916.97010973186" y="6453591.442144476" >
		</node>
		<node id="-2447" x="238489.2880231207" y="6453494.074558445" >
		</node>
		<node id="-2449" x="239067.7106330948" y="6453394.491151736" >
		</node>
		<node id="-2451" x="239595.5242622141" y="6453307.254076505" >
		</node>
		<node id="-2452" x="245849.58983590823" y="6451710.667399892" >
		</node>
		<node id="-2458" x="246195.94112952997" y="6452139.804252294" >
		</node>
		<node id="-2459" x="246200.81056811224" y="6452146.22500663" >
		</node>
		<node id="-2462" x="246549.13537858854" y="6451876.961730746" >
		</node>
		<node id="-2463" x="243271.5132728213" y="6449148.796494086" >
		</node>
		<node id="-2474" x="242969.11000744672" y="6449542.155194062" >
		</node>
		<node id="-2480" x="242855.99387889984" y="6450037.247784964" >
		</node>
		<node id="-2485" x="242690.8375027425" y="6450579.002712953" >
		</node>
		<node id="-249" x="246730.9810221633" y="6450679.233255055" >
		</node>
		<node id="-25" x="247035.73835857454" y="6449116.712073443" >
		</node>
		<node id="-2507" x="245712.7730976912" y="6451805.671889106" >
		</node>
		<node id="-251" x="246765.22641501282" y="6450667.064498835" >
		</node>
		<node id="-252" x="242642.29850465353" y="6453788.130521573" >
		</node>
		<node id="-253" x="242576.54268192657" y="6453653.173093402" >
		</node>
		<node id="-256" x="242433.93985918106" y="6453364.496623381" >
		</node>
		<node id="-257" x="243320.7503771844" y="6451315.600417962" >
		</node>
		<node id="-2597" x="246766.11491316813" y="6452356.531109931" >
		</node>
		<node id="-26" x="245314.8864907008" y="6452504.268841129" >
		</node>
		<node id="-261" x="243387.24041128086" y="6451556.0736958925" >
		</node>
		<node id="-2616" x="238403.5871338705" y="6453000.169618716" >
		</node>
		<node id="-2621" x="238517.5051631045" y="6452507.527381876" >
		</node>
		<node id="-263" x="243195.43001790013" y="6451594.043121245" >
		</node>
		<node id="-2640" x="238082.52579142866" y="6452348.599726485" >
		</node>
		<node id="-2645" x="238119.44695534807" y="6452264.750720417" >
		</node>
		<node id="-2667" x="246344.28484433805" y="6451500.604785812" >
		</node>
		<node id="-2675" x="243508.49474148554" y="6452186.900600365" >
		</node>
		<node id="-2684" x="245610.30677744403" y="6452331.557176459" >
		</node>
		<node id="-2685" x="245715.51038016038" y="6452468.9045419665" >
		</node>
		<node id="-269" x="243009.3701935242" y="6451640.414535136" >
		</node>
		<node id="-271" x="243145.64097841585" y="6451423.527419554" >
		</node>
		<node id="-2717" x="246236.23538351714" y="6452191.888585732" >
		</node>
		<node id="-272" x="244412.84040578819" y="6451482.488409914" >
		</node>
		<node id="-2724" x="239853.47968573967" y="6451983.603016277" >
		</node>
		<node id="-273" x="244377.22707785465" y="6451494.699854942" >
		</node>
		<node id="-275" x="244300.24842003814" y="6451521.873069723" >
		</node>
		<node id="-2750" x="238667.0931761065" y="6450799.184261591" >
		</node>
		<node id="-2753" x="238654.0586578404" y="6451522.282882458" >
		</node>
		<node id="-2756" x="238589.83222156813" y="6452219.658433248" >
		</node>
		<node id="-2759" x="246998.99021701168" y="6449139.621121237" >
		</node>
		<node id="-2770" x="247049.3046013017" y="6449146.99705724" >
		</node>
		<node id="-2777" x="247008.94057763237" y="6449160.088194421" >
		</node>
		<node id="-278" x="244217.03351056055" y="6451554.262663853" >
		</node>
		<node id="-2782" x="243813.1882229401" y="6450129.177581609" >
		</node>
		<node id="-2783" x="243768.9258589188" y="6450106.009770563" >
		</node>
		<node id="-279" x="244142.54032017352" y="6451582.763776789" >
		</node>
		<node id="-289" x="243657.05516749225" y="6451767.816213818" >
		</node>
		<node id="-29" x="245160.62184881847" y="6452371.961394011" >
		</node>
		<node id="-293" x="243518.3427332103" y="6451879.961958978" >
		</node>
		<node id="-294" x="246175.5054547788" y="6450749.465453488" >
		</node>
		<node id="-295" x="246110.5980808573" y="6450751.756516082" >
		</node>
		<node id="-296" x="245947.23668536337" y="6450757.441614377" >
		</node>
		<node id="-297" x="245935.07586075927" y="6450757.562075239" >
		</node>
		<node id="-298" x="245815.2000256063" y="6450761.192171245" >
		</node>
		<node id="-299" x="245704.23438712108" y="6450766.52096707" >
		</node>
		<node id="-300" x="245646.01573216965" y="6450768.022201954" >
		</node>
		<node id="-301" x="245592.70108289557" y="6450769.633910488" >
		</node>
		<node id="-302" x="245484.12801612756" y="6450775.340126619" >
		</node>
		<node id="-303" x="245402.82325649925" y="6450804.889228905" >
		</node>
		<node id="-304" x="245339.70617945612" y="6450827.52173535" >
		</node>
		<node id="-305" x="245319.97597462632" y="6450834.595004619" >
		</node>
		<node id="-306" x="245228.24307588834" y="6450867.664910656" >
		</node>
		<node id="-3066" x="246182.49677507894" y="6451529.718429223" >
		</node>
		<node id="-3068" x="246243.37149477674" y="6451479.485645735" >
		</node>
		<node id="-307" x="245127.5607375517" y="6450901.4463382345" >
		</node>
		<node id="-308" x="245061.47622987474" y="6450924.374773049" >
		</node>
		<node id="-3082" x="247124.45193200305" y="6449353.445398959" >
		</node>
		<node id="-309" x="244924.97771994138" y="6450972.411799168" >
		</node>
		<node id="-3095" x="246994.024596807" y="6449609.1199562885" >
		</node>
		<node id="-310" x="244843.75734718132" y="6450997.479080656" >
		</node>
		<node id="-3101" x="247392.17513977282" y="6450782.376690659" >
		</node>
		<node id="-3105" x="247444.45703682525" y="6450678.171986761" >