<?xml version="1.0" encoding="UTF-8"?>

<vehicleDefinitions xmlns="http://www.matsim.org/files/dtd"
 xmlns:xsi="http://www.w3.org/2001/XMLSchema-instance"
 xsi:schemaLocation="http://www.matsim.org/files/dtd http://www.matsim.org/files/dtd/vehicleDefinitions_v1.0.xsd">
	<vehicleType id="1">
		<description>dummybus</description>
		<capacity>
			<seats persons="18"/>
			<standingRoom persons="0"/>
		</capacity>
		<length meter="9.0"/>
		<accessTime secondsPerPerson="2"/>
		<egressTime secondsPerPerson="1"/>
		<doorOperation mode="serial"/>
	</vehicleType>
	<vehicle id="tr_0" type="1"/>
</vehicleDefinitions>
