<?xml version="1.0" encoding="utf-8"?>
<!DOCTYPE population SYSTEM "http://www.matsim.org/files/dtd/population_v6.dtd">
<population>
  <person id="person_15294">
    <plan selected="yes">
      <activity type="home" x="244339.18635988244" y="6451969.626775104" end_time="06:40:46" />
      <leg mode="pt" />
      <activity type="work" x="243339.5365927158" y="6453196.7983021615" end_time="15:25:16" />
      <leg mode="pt" />
      <activity type="home" x="244339.18635988244" y="6451969.626775104" />
    </plan>
  </person>
  <person id="person_15292">
    <plan selected="yes">
      <activity type="home" x="244610.17365962153" y="6453222.558932776" end_time="08:58:46" />
      <leg mode="pt" />
      <activity type="work" x="246353.59280037295" y="6450893.3954849625" end_time="17:08:28" />
      <leg mode="pt" />
      <activity type="home" x="244610.17365962153" y="6453222.558932776" />
    </plan>
  </person>
  <person id="person_15290">
    <plan selected="yes">
      <activity type="home" x="240979.64871423863" y="6451154.293228866" end_time="09:38:04" />
      <leg mode="pt" />
      <activity type="work" x="242778.98061345133" y="6453324.760303304" end_time="15:40:45" />
      <leg mode="pt" />
      <activity type="home" x="240979.64871423863" y="6451154.293228866" />
    </plan>
  </person>
  <person id="person_15288">
    <plan selected="yes">
      <activity type="home" x="241152.3678990983" y="6453217.84270061" end_time="10:31:34" />
      <leg mode="pt" />
      <activity type="work" x="244579.81624474496" y="6452287.5367378695" end_time="18:18:41" />
      <leg mode="pt" />
      <activity type="home" x="241152.3678990983" y="6453217.84270061" />
    </plan>
  </person>
  <person id="person_15286">
    <plan selected="yes">
      <activity type="home" x="240365.52336084069" y="6454199.321310542" end_time="08:01:46" />
      <leg mode="pt" />
      <activity type="work" x="244262.47200778592" y="6452748.216505388" end_time="17:37:28" />
      <leg mode="pt" />
      <activity type="home" x="240365.52336084069" y="6454199.321310542" />
    </plan>
  </person>
  <person id="person_15284">
    <plan selected="yes">
      <activity type="home" x="244179.311635021" y="6451727.830666481" end_time="10:04:55" />
      <leg mode="pt" />
      <activity type="work" x="241267.02445246986" y="6453092.711411439" end_time="18:58:02" />
      <leg mode="pt" />
      <activity type="home" x="244179.311635021" y="6451727.830666481" />
    </plan>
  </person>
  <person id="person_15282">
    <plan selected="yes">
      <activity type="home" x="240990.5836920875" y="6453027.17359439" end_time="08:34:17" />
      <leg mode="pt" />
      <activity type="work" x="244652.57890543147" y="6451762.100879318" end_time="14:41:17" />
      <leg mode="pt" />
      <activity type="home" x="240990.5836920875" y="6453027.17359439" />
    </plan>
  </person>
  <person id="person_15280">
    <plan selected="yes">
      <activity type="home" x="241396.7419874719" y="6453296.937268854" end_time="10:32:24" />
      <leg mode="pt" />
      <activity type="work" x="245980.5901494502" y="6451886.590040535" end_time="19:00:22" />
      <leg mode="pt" />
      <activity type="home" x="241396.7419874719" y="6453296.937268854" />
    </plan>
  </person>
  <person id="person_15278">
    <plan selected="yes">
      <activity type="home" x="244582.25852474628" y="6451980.662252947" end_time="07:40:59" />
      <leg mode="pt" />
      <activity type="work" x="246600.28085640274" y="6452434.952843613" end_time="14:56:41" />
      <leg mode="pt" />
      <activity type="home" x="244582.25852474628" y="6451980.662252947" />
    </plan>
  </person>
  <person id="person_15276">
    <plan selected="yes">
      <activity type="home" x="246075.52955425208" y="6452336.665504235" end_time="09:47:20" />
      <leg mode="pt" />
      <activity type="work" x="244031.10832010137" y="6452806.965092511" end_time="17:21:34" />
      <leg mode="pt" />
      <activity type="home" x="246075.52955425208" y="6452336.665504235" />
    </plan>
  </person>
  <person id="person_15274">
    <plan selected="yes">
      <activity type="home" x="246712.02532450153" y="6450798.3320482755" end_time="09:18:23" />
      <leg mode="pt" />
      <activity type="work" x="243441.34455720286" y="6453006.322913109" end_time="17:03:14" />
      <leg mode="pt" />
      <activity type="home" x="246712.02532450153" y="6450798.3320482755" />
    </plan>
  </person>
  <person id="person_15272">
    <plan selected="yes">
      <activity type="home" x="247096.24146973726" y="6450936.019502113" end_time="07:47:38" />
      <leg mode="pt" />
      <activity type="work" x="245738.45921982074" y="6452364.22150007" end_time="16:46:22" />
      <leg mode="pt" />
      <activity type="home" x="247096.24146973726" y="6450936.019502113" />
    </plan>
  </person>
  <person id="person_15270">
    <plan selected="yes">
      <activity type="home" x="244827.9639203865" y="6450781.083473427" end_time="08:03:20" />
      <leg mode="pt" />
      <activity type="work" x="246624.1392883916" y="6452158.95399364" end_time="17:43:21" />
      <leg mode="pt" />
      <activity type="home" x="244827.9639203865" y="6450781.083473427" />
    </plan>
  </person>
  <person id="person_15268">
    <plan selected="yes">
      <activity type="home" x="246472.9295467846" y="6452205.725233689" end_time="10:01:49" />
      <leg mode="pt" />
      <activity type="work" x="244678.72346069233" y="6451208.055087531" end_time="19:02:38" />
      <leg mode="pt" />
      <activity type="home" x="246472.9295467846" y="6452205.725233689" />
    </plan>
  </person>
  <person id="person_15266">
    <plan selected="yes">
      <activity type="home" x="246187.99712961502" y="6451312.93921755" end_time="10:42:08" />
      <leg mode="pt" />
      <activity type="work" x="241618.06458240014" y="6453123.912966692" end_time="19:24:20" />
      <leg mode="pt" />
      <activity type="home" x="246187.99712961502" y="6451312.93921755" />
    </plan>
  </person>
  <person id="person_15264">
    <plan selected="yes">
      <activity type="home" x="246169.46326727097" y="6452276.744795987" end_time="10:03:27" />
      <leg mode="pt" />
      <activity type="work" x="244918.34686845753" y="6453128.086906469" end_time="16:58:20" />
      <leg mode="pt" />
      <activity type="home" x="246169.46326727097" y="6452276.744795987" />
    </plan>
  </person>
  <person id="person_15262">
    <plan selected="yes">
      <activity type="home" x="246032.58761118728" y="6451701.368519252" end_time="06:43:20" />
      <leg mode="pt" />
      <activity type="work" x="244982.94798730276" y="6452814.415397485" end_time="14:16:23" />
      <leg mode="pt" />
      <activity type="home" x="246032.58761118728" y="6451701.368519252" />
    </plan>
  </person>
  <person id="person_15260">
    <plan selected="yes">
      <activity type="home" x="243200.30231406674" y="6453596.813778633" end_time="08:15:43" />
      <leg mode="pt" />
      <activity type="work" x="246430.38521674534" y="6451393.338532898" end_time="14:58:17" />
      <leg mode="pt" />
      <activity type="home" x="243200.30231406674" y="6453596.813778633" />
    </plan>
  </person>
  <person id="person_15258">
    <plan selected="yes">
      <activity type="home" x="245766.9976141943" y="6452733.468467275" end_time="09:40:25" />
      <leg mode="pt" />
      <activity type="work" x="242966.52341750043" y="6453334.379775187" end_time="18:02:45" />
      <leg mode="pt" />
      <activity type="home" x="245766.9976141943" y="6452733.468467275" />
    </plan>
  </person>
  <person id="person_15256">
    <plan selected="yes">
      <activity type="home" x="243847.8913923025" y="6452590.005607569" end_time="08:12:29" />
      <leg mode="pt" />
      <activity type="work" x="245389.85639419663" y="6451493.985903137" end_time="17:53:41" />
      <leg mode="pt" />
      <activity type="home" x="243847.8913923025" y="6452590.005607569" />
    </plan>
  </person>
  <person id="person_15254">
    <plan selected="yes">
      <activity type="home" x="241978.70895736958" y="6451633.443987464" end_time="08:17:01" />
      <leg mode="pt" />
      <activity type="work" x="243780.97695911673" y="6451912.947149628" end_time="17:43:41" />
      <leg mode="pt" />
      <activity type="home" x="241978.70895736958" y="6451633.443987464" />
    </plan>
  </person>
  <person id="person_15252">
    <plan selected="yes">
      <activity type="home" x="244232.9418680589" y="6453445.13835951" end_time="07:54:10" />
      <leg mode="pt" />
      <activity type="work" x="241183.19602799907" y="6453186.083300846" end_time="14:02:47" />
      <leg mode="pt" />
      <activity type="home" x="244232.9418680589" y="6453445.13835951" />
    </plan>
  </person>
  <person id="person_15250">
    <plan selected="yes">
      <activity type="home" x="246498.59283721054" y="6451928.585511904" end_time="09:24:22" />
      <leg mode="pt" />
      <activity type="work" x="244778.25214558022" y="6451196.138566155" end_time="16:33:55" />
      <leg mode="pt" />
      <activity type="home" x="246498.59283721054" y="6451928.585511904" />
    </plan>
  </person>
  <person id="person_15248">
    <plan selected="yes">
      <activity type="home" x="245763.70964399216" y="6452658.586176598" end_time="10:41:08" />
      <leg mode="pt" />
      <activity type="work" x="243077.23724816134" y="6452852.732932433" end_time="20:26:05" />
      <leg mode="pt" />
      <activity type="home" x="245763.70964399216" y="6452658.586176598" />
    </plan>
  </person>
  <person id="person_15246">
    <plan selected="yes">
      <activity type="home" x="243179.15068742665" y="6453711.622328058" end_time="10:47:54" />
      <leg mode="pt" />
      <activity type="work" x="244934.40033952665" y="6452469.237317812" end_time="20:04:24" />
      <leg mode="pt" />
      <activity type="home" x="243179.15068742665" y="6453711.622328058" />
    </plan>
  </person>
  <person id="person_15244">
    <plan selected="yes">
      <activity type="home" x="244260.71984410347" y="6452698.750551539" end_time="08:51:57" />
      <leg mode="pt" />
      <activity type="work" x="241755.4251153581" y="6453060.420935566" end_time="18:45:56" />
      <leg mode="pt" />
      <activity type="home" x="244260.71984410347" y="6452698.750551539" />
    </plan>
  </person>
  <person id="person_15242">
    <plan selected="yes">
      <activity type="home" x="246887.2316897564" y="6452642.055964501" end_time="10:17:52" />
      <leg mode="pt" />
      <activity type="work" x="245234.49117280822" y="6450996.650279812" end_time="17:53:31" />
      <leg mode="pt" />
      <activity type="home" x="246887.2316897564" y="6452642.055964501" />
    </plan>
  </person>
  <person id="person_15240">
    <plan selected="yes">
      <activity type="home" x="244077.27984363545" y="6452379.086775862" end_time="09:17:24" />
      <leg mode="pt" />
      <activity type="work" x="244950.08783257173" y="6453883.937801271" end_time="15:44:45" />
      <leg mode="pt" />
      <activity type="home" x="244077.27984363545" y="6452379.086775862" />
    </plan>
  </person>
  <person id="person_15238">
    <plan selected="yes">
      <activity type="home" x="246434.47979284025" y="6452055.721895798" end_time="06:32:53" />
      <leg mode="pt" />
      <activity type="work" x="243858.5261136402" y="6452550.829072347" end_time="12:51:06" />
      <leg mode="pt" />
      <activity type="home" x="246434.47979284025" y="6452055.721895798" />
    </plan>
  </person>
  <person id="person_15236">
    <plan selected="yes">
      <activity type="home" x="242215.2757813914" y="6451896.732709243" end_time="07:21:51" />
      <leg mode="pt" />
      <activity type="work" x="245510.57065078372" y="6452733.447976737" end_time="16:41:06" />
      <leg mode="pt" />
      <activity type="home" x="242215.2757813914" y="6451896.732709243" />
    </plan>
  </person>
  <person id="person_15234">
    <plan selected="yes">
      <activity type="home" x="243413.13973598328" y="6453022.567832538" end_time="06:46:04" />
      <leg mode="pt" />
      <activity type="work" x="245556.46264028313" y="6452091.541235888" end_time="14:37:59" />
      <leg mode="pt" />
      <activity type="home" x="243413.13973598328" y="6453022.567832538" />
    </plan>
  </person>
  <person id="person_15232">
    <plan selected="yes">
      <activity type="home" x="244698.9091991613" y="6452705.786334506" end_time="07:04:12" />
      <leg mode="pt" />
      <activity type="work" x="241080.0729278366" y="6452226.316111215" end_time="15:57:13" />
      <leg mode="pt" />
      <activity type="home" x="244698.9091991613" y="6452705.786334506" />
    </plan>
  </person>
  <person id="person_15230">
    <plan selected="yes">
      <activity type="home" x="245250.78250402104" y="6452569.913867107" end_time="07:45:15" />
      <leg mode="pt" />
      <activity type="work" x="247673.05335799002" y="6450727.009930091" end_time="14:42:28" />
      <leg mode="pt" />
      <activity type="home" x="245250.78250402104" y="6452569.913867107" />
    </plan>
  </person>
  <person id="person_15228">
    <plan selected="yes">
      <activity type="home" x="241223.9356720234" y="6451303.592096641" end_time="07:02:10" />
      <leg mode="pt" />
      <activity type="work" x="245536.37174908142" y="6451567.76095335" end_time="13:27:05" />
      <leg mode="pt" />
      <activity type="home" x="241223.9356720234" y="6451303.592096641" />
    </plan>
  </person>
  <person id="person_15226">
    <plan selected="yes">
      <activity type="home" x="244356.34072657317" y="6450678.442499853" end_time="06:40:34" />
      <leg mode="pt" />
      <activity type="work" x="244120.23297632945" y="6453330.198846436" end_time="13:32:43" />
      <leg mode="pt" />
      <activity type="home" x="244356.34072657317" y="6450678.442499853" />
    </plan>
  </person>
  <person id="person_15224">
    <plan selected="yes">
      <activity type="home" x="241993.7104437231" y="6452716.693616005" end_time="10:41:25" />
      <leg mode="pt" />
      <activity type="work" x="246828.14445759158" y="6452471.980653858" end_time="18:02:48" />
      <leg mode="pt" />
      <activity type="home" x="241993.7104437231" y="6452716.693616005" />
    </plan>
  </person>
  <person id="person_15222">
    <plan selected="yes">
      <activity type="home" x="243376.6251728506" y="6453908.296756993" end_time="10:53:38" />
      <leg mode="pt" />
      <activity type="work" x="245331.94454977885" y="6452853.27863566" end_time="17:55:35" />
      <leg mode="pt" />
      <activity type="home" x="243376.6251728506" y="6453908.296756993" />
    </plan>
  </person>
  <person id="person_15220">
    <plan selected="yes">
      <activity type="home" x="245200.12496177966" y="6452616.840195193" end_time="08:05:35" />
      <leg mode="pt" />
      <activity type="work" x="242689.3569206161" y="6453357.246542671" end_time="16:44:29" />
      <leg mode="pt" />
      <activity type="home" x="245200.12496177966" y="6452616.840195193" />
    </plan>
  </person>
  <person id="person_15218">
    <plan selected="yes">
      <activity type="home" x="245784.6744306312" y="6452284.785551792" end_time="07:56:01" />
      <leg mode="pt" />
      <activity type="work" x="244215.507919179" y="6452783.792918695" end_time="17:38:49" />
      <leg mode="pt" />
      <activity type="home" x="245784.6744306312" y="6452284.785551792" />
    </plan>
  </person>
  <person id="person_15216">
    <plan selected="yes">
      <activity type="home" x="246372.94688343708" y="6452047.881031717" end_time="08:35:40" />
      <leg mode="pt" />
      <activity type="work" x="241220.20462074617" y="6452379.041058389" end_time="17:27:02" />
      <leg mode="pt" />
      <activity type="home" x="246372.94688343708" y="6452047.881031717" />
    </plan>
  </person>
  <person id="person_15214">
    <plan selected="yes">
      <activity type="home" x="245919.95330353308" y="6452283.318730331" end_time="10:19:49" />
      <leg mode="pt" />
      <activity type="work" x="247248.9720136567" y="6450598.246810864" end_time="18:31:05" />
      <leg mode="pt" />
      <activity type="home" x="245919.95330353308" y="6452283.318730331" />
    </plan>
  </person>
  <person id="person_15212">
    <plan selected="yes">
      <activity type="home" x="244782.26781896583" y="6452922.837365397" end_time="06:59:57" />
      <leg mode="pt" />
      <activity type="work" x="242486.46097291386" y="6453427.565438007" end_time="14:01:39" />
      <leg mode="pt" />
      <activity type="home" x="244782.26781896583" y="6452922.837365397" />
    </plan>
  </person>
  <person id="person_15210">
    <plan selected="yes">
      <activity type="home" x="244477.37522105122" y="6452466.576576488" end_time="08:43:37" />
      <leg mode="pt" />
      <activity type="work" x="247010.23718707485" y="6452374.842014674" end_time="15:57:48" />
      <leg mode="pt" />
      <activity type="home" x="244477.37522105122" y="6452466.576576488" />
    </plan>
  </person>
  <person id="person_15208">
    <plan selected="yes">
      <activity type="home" x="244687.29089933514" y="6453055.51835355" end_time="09:31:59" />
      <leg mode="pt" />
      <activity type="work" x="245944.21003691878" y="6452036.531740411" end_time="17:22:33" />
      <leg mode="pt" />
      <activity type="home" x="244687.29089933514" y="6453055.51835355" />
    </plan>
  </person>
  <person id="person_15206">
    <plan selected="yes">
      <activity type="home" x="241958.28734863468" y="6451658.597671809" end_time="10:22:59" />
      <leg mode="pt" />
      <activity type="work" x="246442.474801852" y="6452042.092078987" end_time="19:58:21" />
      <leg mode="pt" />
      <activity type="home" x="241958.28734863468" y="6451658.597671809" />
    </plan>
  </person>
  <person id="person_15204">
    <plan selected="yes">
      <activity type="home" x="242193.11240860703" y="6453085.438458304" end_time="07:16:48" />
      <leg mode="pt" />
      <activity type="work" x="246831.0117312362" y="6451063.853412215" end_time="14:27:16" />
      <leg mode="pt" />
      <activity type="home" x="242193.11240860703" y="6453085.438458304" />
    </plan>
  </person>
  <person id="person_15202">
    <plan selected="yes">
      <activity type="home" x="247216.9377419514" y="6450920.695817194" end_time="09:20:08" />
      <leg mode="pt" />
      <activity type="work" x="244323.82192329608" y="6451236.889828837" end_time="17:58:04" />
      <leg mode="pt" />
      <activity type="home" x="247216.9377419514" y="6450920.695817194" />
    </plan>
  </person>
  <person id="person_15200">
    <plan selected="yes">
      <activity type="home" x="242947.81105069176" y="6451837.563514902" end_time="08:28:42" />
      <leg mode="pt" />
      <activity type="work" x="244329.55958302098" y="6452499.153487966" end_time="15:30:52" />
      <leg mode="pt" />
      <activity type="home" x="242947.81105069176" y="6451837.563514902" />
    </plan>
  </person>
  <person id="person_15198">
    <plan selected="yes">
      <activity type="home" x="246673.31379941333" y="6451650.482131501" end_time="08:42:07" />
      <leg mode="pt" />
      <activity type="work" x="244609.17174773777" y="6453930.146298251" end_time="14:56:48" />
      <leg mode="pt" />
      <activity type="home" x="246673.31379941333" y="6451650.482131501" />
    </plan>
  </person>
  <person id="person_15196">
    <plan selected="yes">
      <activity type="home" x="241127.67917219846" y="6450751.10555222" end_time="06:59:02" />
      <leg mode="pt" />
      <activity type="work" x="244718.76668500947" y="6452200.564609852" end_time="13:46:26" />
      <leg mode="pt" />
      <activity type="home" x="241127.67917219846" y="6450751.10555222" />
    </plan>
  </person>
  <person id="person_15194">
    <plan selected="yes">
      <activity type="home" x="244800.81947551674" y="6451392.035753274" end_time="10:01:38" />
      <leg mode="pt" />
      <activity type="work" x="243089.91346517194" y="6453092.792883393" end_time="18:30:07" />
      <leg mode="pt" />
      <activity type="home" x="244800.81947551674" y="6451392.035753274" />
    </plan>
  </person>
  <person id="person_15192">
    <plan selected="yes">
      <activity type="home" x="245001.32250138256" y="6453205.214467124" end_time="06:58:40" />
      <leg mode="pt" />
      <activity type="work" x="244794.30088002607" y="6451421.447253429" end_time="16:07:19" />
      <leg mode="pt" />
      <activity type="home" x="245001.32250138256" y="6453205.214467124" />
    </plan>
  </person>
  <person id="person_15190">
    <plan selected="yes">
      <activity type="home" x="246113.0479527449" y="6451689.885391294" end_time="09:21:50" />
      <leg mode="pt" />
      <activity type="work" x="243905.67904886082" y="6452893.58700731" end_time="15:32:11" />
      <leg mode="pt" />
      <activity type="home" x="246113.0479527449" y="6451689.885391294" />
    </plan>
  </person>
  <person id="person_15188">
    <plan selected="yes">
      <activity type="home" x="244499.14116062594" y="6452452.542021808" end_time="06:38:13" />
      <leg mode="pt" />
      <activity type="work" x="246715.17480662387" y="6452046.730594282" end_time="16:10:05" />
      <leg mode="pt" />
      <activity type="home" x="244499.14116062594" y="6452452.542021808" />
    </plan>
  </person>
  <person id="person_15186">
    <plan selected="yes">
      <activity type="home" x="243386.23612395176" y="6452670.784936221" end_time="09:22:45" />
      <leg mode="pt" />
      <activity type="work" x="246501.82718842837" y="6452440.926406006" end_time="19:06:52" />
      <leg mode="pt" />
      <activity type="home" x="243386.23612395176" y="6452670.784936221" />
    </plan>
  </person>
  <person id="person_15184">
    <plan selected="yes">
      <activity type="home" x="241451.79000537738" y="6453298.564025404" end_time="08:00:06" />
      <leg mode="pt" />
      <activity type="work" x="246064.97003454287" y="6450951.074607999" end_time="15:52:30" />
      <leg mode="pt" />
      <activity type="home" x="241451.79000537738" y="6453298.564025404" />
    </plan>
  </person>
  <person id="person_15182">
    <plan selected="yes">
      <activity type="home" x="243802.6278151032" y="6452472.3438385" end_time="10:36:05" />
      <leg mode="pt" />
      <activity type="work" x="245446.6437177631" y="6452586.14190019" end_time="16:58:27" />
      <leg mode="pt" />
      <activity type="home" x="243802.6278151032" y="6452472.3438385" />
    </plan>
  </person>
  <person id="person_15180">
    <plan selected="yes">
      <activity type="home" x="240842.94973630933" y="6451460.183158875" end_time="08:26:26" />
      <leg mode="pt" />
      <activity type="work" x="241555.62226167726" y="6453069.740527317" end_time="15:49:22" />
      <leg mode="pt" />
      <activity type="home" x="240842.94973630933" y="6451460.183158875" />
    </plan>
  </person>
  <person id="person_15178">
    <plan selected="yes">
      <activity type="home" x="243944.61506074088" y="6451838.799364749" end_time="09:55:23" />
      <leg mode="pt" />
      <activity type="work" x="240045.41266136908" y="6453361.349264074" end_time="18:43:16" />
      <leg mode="pt" />
      <activity type="home" x="243944.61506074088" y="6451838.799364749" />
    </plan>
  </person>
  <person id="person_15176">
    <plan selected="yes">
      <activity type="home" x="246055.14669419278" y="6452366.885447825" end_time="10:38:41" />
      <leg mode="pt" />
      <activity type="work" x="243937.37382628222" y="6453307.628298346" end_time="19:54:45" />
      <leg mode="pt" />
      <activity type="home" x="246055.14669419278" y="6452366.885447825" />
    </plan>
  </person>
  <person id="person_15174">
    <plan selected="yes">
      <activity type="home" x="244584.12055444112" y="6453081.763405829" end_time="09:22:54" />
      <leg mode="pt" />
      <activity type="work" x="246160.37110152573" y="6452648.791443096" end_time="15:40:37" />
      <leg mode="pt" />
      <activity type="home" x="244584.12055444112" y="6453081.763405829" />
    </plan>
  </person>
  <person id="person_15172">
    <plan selected="yes">
      <activity type="home" x="240264.93494484766" y="6453523.244929144" end_time="07:26:32" />
      <leg mode="pt" />
      <activity type="work" x="244399.42683185203" y="6452725.803662397" end_time="17:08:08" />
      <leg mode="pt" />
      <activity type="home" x="240264.93494484766" y="6453523.244929144" />
    </plan>
  </person>
  <person id="person_15170">
    <plan selected="yes">
      <activity type="home" x="247380.3557272582" y="6451039.576653299" end_time="10:19:48" />
      <leg mode="pt" />
      <activity type="work" x="243940.44469977156" y="6451800.350625359" end_time="20:04:32" />
      <leg mode="pt" />
      <activity type="home" x="247380.3557272582" y="6451039.576653299" />
    </plan>
  </person>
  <person id="person_15168">
    <plan selected="yes">
      <activity type="home" x="243239.92285012963" y="6453112.051526489" end_time="08:16:53" />
      <leg mode="pt" />
      <activity type="work" x="244560.7675531383" y="6451826.906647657" end_time="16:38:44" />
      <leg mode="pt" />
      <activity type="home" x="243239.92285012963" y="6453112.051526489" />
    </plan>
  </person>
  <person id="person_15166">
    <plan selected="yes">
      <activity type="home" x="246187.4244235101" y="6452812.348584336" end_time="09:45:48" />
      <leg mode="pt" />
      <activity type="work" x="246059.5730500314" y="6451074.744551112" end_time="18:24:46" />
      <leg mode="pt" />
      <activity type="home" x="246187.4244235101" y="6452812.348584336" />
    </plan>
  </person>
  <person id="person_15164">
    <plan selected="yes">
      <activity type="home" x="240133.6579075592" y="6453188.298896491" end_time="09:31:57" />
      <leg mode="pt" />
      <activity type="work" x="243529.7566869071" y="6453060.743189763" end_time="17:17:52" />
      <leg mode="pt" />
      <activity type="home" x="240133.6579075592" y="6453188.298896491" />
    </plan>
  </person>
  <person id="person_15162">
    <plan selected="yes">
      <activity type="home" x="240799.8143811643" y="6451351.007186528" end_time="10:29:51" />
      <leg mode="pt" />
      <activity type="work" x="245617.16237407376" y="6452734.863018159" end_time="17:57:22" />
      <leg mode="pt" />
      <activity type="home" x="240799.8143811643" y="6451351.007186528" />
    </plan>
  </person>
  <person id="person_15160">
    <plan selected="yes">
      <activity type="home" x="244529.43810742517" y="6453783.263847881" end_time="07:18:05" />
      <leg mode="pt" />
      <activity type="work" x="242944.74523310905" y="6451756.175839091" end_time="15:57:29" />
      <leg mode="pt" />
      <activity type="home" x="244529.43810742517" y="6453783.263847881" />
    </plan>
  </person>
  <person id="person_15158">
    <plan selected="yes">
      <activity type="home" x="243747.41762554375" y="6453886.3231711695" end_time="07:11:59" />
      <leg mode="pt" />
      <activity type="work" x="243886.5932893788" y="6451698.743033965" end_time="15:10:35" />
      <leg mode="pt" />
      <activity type="home" x="243747.41762554375" y="6453886.3231711695" />
    </plan>
  </person>
  <person id="person_15156">
    <plan selected="yes">
      <activity type="home" x="244186.1647873602" y="6452026.56023146" end_time="07:28:52" />
      <leg mode="pt" />
      <activity type="work" x="246508.52170758523" y="6451671.919057307" end_time="13:50:00" />
      <leg mode="pt" />
      <activity type="home" x="244186.1647873602" y="6452026.56023146" />
    </plan>
  </person>
  <person id="person_15154">
    <plan selected="yes">
      <activity type="home" x="244959.71391737668" y="6452499.806260393" end_time="10:29:48" />
      <leg mode="pt" />
      <activity type="work" x="246212.06073374924" y="6451644.6859585075" end_time="18:05:23" />
      <leg mode="pt" />
      <activity type="home" x="244959.71391737668" y="6452499.806260393" />
    </plan>
  </person>
  <person id="person_15152">
    <plan selected="yes">
      <activity type="home" x="244738.45452061333" y="6452099.192039578" end_time="09:10:46" />
      <leg mode="pt" />
      <activity type="work" x="242351.092417501" y="6451903.243835859" end_time="16:11:11" />
      <leg mode="pt" />
      <activity type="home" x="244738.45452061333" y="6452099.192039578" />
    </plan>
  </person>
  <person id="person_15150">
    <plan selected="yes">
      <activity type="home" x="243605.0946558866" y="6452730.299442487" end_time="09:53:36" />
      <leg mode="pt" />
      <activity type="work" x="245419.03474198043" y="6451363.903229512" end_time="18:19:15" />
      <leg mode="pt" />
      <activity type="home" x="243605.0946558866" y="6452730.299442487" />
    </plan>
  </person>
  <person id="person_15148">
    <plan selected="yes">
      <activity type="home" x="243106.2885604633" y="6453201.416017402" end_time="06:57:22" />
      <leg mode="pt" />
      <activity type="work" x="246226.70260926618" y="6451921.515966572" end_time="15:02:54" />
      <leg mode="pt" />
      <activity type="home" x="243106.2885604633" y="6453201.416017402" />
    </plan>
  </person>
  <person id="person_15146">
    <plan selected="yes">
      <activity type="home" x="245489.3479603067" y="6451737.032937033" end_time="07:47:35" />
      <leg mode="pt" />
      <activity type="work" x="243806.6632597939" y="6451656.878587096" end_time="17:32:15" />
      <leg mode="pt" />
      <activity type="home" x="245489.3479603067" y="6451737.032937033" />
    </plan>
  </person>
  <person id="person_15144">
    <plan selected="yes">
      <activity type="home" x="243703.23138973804" y="6451541.250327485" end_time="10:44:39" />
      <leg mode="pt" />
      <activity type="work" x="240865.09211491194" y="6451130.839704139" end_time="17:25:38" />
      <leg mode="pt" />